!DLPNO-CCSD(T) DEF2-TZVP DEF2-TZVP/C def2/J RIJCOSX TIGHTSCF CPCM(CH2Cl2) RI-SOMF(1X)
 
%maxcore  120000

%mdci
	DOSOLV  TRUE
	Maxiter 1000 # maxiter, probably last two is just overkilling
end

# pyrazine_Nickel

* XYZ 0 1 
  Ni  -0.00004905151749     -0.00032530939270     -0.00001471778878
  N   -0.00018003405306     -0.00038348337546      1.87765472430437
  N   -0.00027191516755     -0.00029271173073      4.57250133115961
  C   1.15122009318728     -0.23393496342743      2.52544449547331
  C   4.43085332617003     -0.17427538493204     -0.09912120128954
  C   3.64444303428642     -0.02311707618454      2.15823986567297
  H   3.82931504469430      0.13052165358663      3.20934918533445
  C   4.69287310970436      0.00736998914583      1.25148725329594
  C   1.08142579250700     -0.40628995736947      3.92088626753917
  N   2.10508024814931     -0.36798340960615      0.36728189295218
  C   3.64217724170561     -2.78185482321523      4.84597161125224
  N   2.71332296702831     -2.13372169779124      4.14756666900360
  C   2.45378412333729     -0.61795242327778      5.99459595281878
  H   1.95163576909041      0.24489255884187      6.40815999758204
  C   2.35595513185214     -0.23745956116808      1.68169648968768
  C   4.04115537494975     -2.39912073539897      6.12340456136883
  H   4.80761231986730     -2.95819454376136      6.64302055343803
  C   3.11330117466061     -0.34648057359991     -0.49914986413626
  C   2.13549413551763     -1.06838266071298      4.71691106616049
  C   3.43276243419510     -1.29697704518439      6.70649120880743
  H   3.71562854953635     -0.96875492709544      7.69824732192107
  H   5.70350415408763      0.17498963609512      1.59945746320693
  H   4.08863795548124     -3.64647674650045      4.36741105837627
  H   5.22366610293311     -0.16658834852134     -0.83411357278990
  H   2.85754436811149     -0.46086928237183     -1.54506278731911
  C   -1.15165109287196      0.23318673433871      2.52532467338342
  C   -4.43089576070260      0.17326148272034     -0.09980156853544
  C   -3.64481858051011      0.02170057868628      2.15764485169873
  H   -3.82984080029778     -0.13231831657084      3.20865502557927
  C   -4.69308915883512     -0.00880604256306      1.25071216919668
  C   -1.08192702868167      0.40568896531451      3.92078855645241
  N   -2.10523068321117      0.36726298709973      0.36702482295057
  C   -3.64028764861000      2.78383238007621      4.84594240988097
  N   -2.71206565856752      2.13481062882705      4.14752770818408
  C   -2.45443105332428      0.61839007248779      5.99428100410127
  H   -1.95323500827913     -0.24504423072588      6.40776744193889
  C   -2.35629408657830      0.23653421112147      1.68139056252779
  C   -4.03990136390906      2.40124314499136      6.12322036615618
  H   -4.80581759395103      2.96104978312012      6.64284486168421
  C   -3.11330994628749      0.34575623296289     -0.49957502181722
  C   -2.13557064327109      1.06863802893219      4.71667308511747
  C   -3.43278439233415      1.29832564282045      6.70617015730736
  H   -3.71612544984867      0.97022859042073      7.69783188839947
  H   -5.70373549068832     -0.17677103773250      1.59847132962050
  H   -4.08571777051557      3.64905398439383      4.36750545483330
  H   -5.22358182072635      0.16554319101821     -0.83493063011017
  H   -2.85739259430415      0.46031181104890     -1.54543051957768
  N   0.00007077724049     -0.00025118886815     -1.87769193212261
  N   0.00016360021363     -0.00009248982833     -4.57256108128375
  C   -0.23306612835918     -1.15173024249051     -2.52548535199491
  C   -0.17409940099907     -4.43128837685083      0.09911816101898
  C   -0.02256515644157     -3.64491575056968     -2.15823430830073
  H   0.13108303232747     -3.82980383575549     -3.20935449480821
  C   0.00768178743126     -4.69334500122092     -1.25146986364192
  C   -0.40495586388864     -1.08215888850597     -3.92098428321520
  N   -0.36762199709251     -2.10550515122348     -0.36732829932019
  C   -2.77659230659125     -3.64663245539540     -4.84577221611607
  N   -2.12985077324999     -2.71673123119242     -4.14746565318720
  C   -0.61491992710669     -2.45459395546054     -5.99482585919072
  H   0.24705929389134     -1.95106483420929     -6.40851803817344
  C   -0.23674880786180     -2.35640834693480     -1.68170030382750
  C   -2.39351801189122     -4.04486691381634     -6.12333541577190
  H   -2.95143907887071     -4.81222050597466     -6.64286689712886
  C   -0.34632154280382     -3.11372043625576      0.49911218833638
  C   -1.06567415026926     -2.13702905518732     -4.71707551708793
  C   -1.29250425712357     -3.43463025047478     -6.70663326999137
  H   -0.96401688863576     -3.71692524430026     -7.69846448598802
  H   0.17520760778500     -5.70400112804701     -1.59941285614935
  H   -3.64034622443471     -4.09457455677688     -4.36702870489247
  H   -0.16661075733232     -5.22409998734376      0.83411398564478
  H   -0.46093784906744     -2.85795745983772      1.54499916735524
  C   0.23326436762722      1.15128872917615     -2.52534953049086
  C   0.17420215135589      4.43065141482459      0.09944806065742
  C   0.02311096369343      3.64444796460744     -2.15799527103656
  H   -0.13021887609455      3.82941797438140     -3.20915711230215
  C   -0.00721026967835      4.69282381138194     -1.25116946085244
  C   0.40522059848916      1.08189654424534     -3.92082739990036
  N   0.36759872166598      2.10488116769999     -0.36710900956034
  C   2.77551794036789      3.64784890619395     -4.84489789493308
  N   2.12919365117135      2.71748359004552     -4.14681991073455
  C   0.61484257021107      2.45457764823157     -5.99455059654755
  H   -0.24675857521499      1.95058333279263     -6.40846533988447
  C   0.23696776739297      2.35588564398253     -1.68148097080718
  C   2.39251106177778      4.04593182217275     -6.12252817293183
  H   2.95008149699231      4.81366986246005     -6.64186784011199
  C   0.34621996849678      3.11303889736099      0.49939402810875
  C   1.06555238098492      2.13712630679228     -4.71675688199039
  C   1.29199869460880      3.43507619508981     -6.70612662942334
  H   0.96355616622365      3.71726451784529     -7.69800310259310
  H   -0.17450408070742      5.70352668446661     -1.59908810699903
  H   3.63887904814922      4.09629068501220     -4.36591367475226
  H   0.16666407652238      5.22341861924766      0.83449117240972
  H   0.46064537508578      2.85719997266918      1.54528351950867
*

