!DLPNO-CCSD(T) DEF2-TZVP DEF2-TZVP/C def2/J RIJCOSX TIGHTSCF CPCM(CH2Cl2) RI-SOMF(1X)
 
%maxcore  120000

%mdci
	DOSOLV  TRUE
	Maxiter 1000 # maxiter, probably last two is just overkilling
end

# pyrazine_Nickel

* XYZ 0 3 
  Ni  0.00001861423108      0.00000489854055      0.00000596173458
  N   0.00001360609212      0.00001145178440      2.01194315667711
  N   0.00000350710160      0.00000667320926      4.68392361992765
  C   -1.14723920842501      0.23554809357182      2.64040931397799
  C   -4.37989290460869      0.16394471180762     -0.06250919253497
  C   -3.64063161927445      0.11493795118591      2.21422160046836
  H   -3.85214450936893      0.03672406161795      3.26813735805289
  C   -4.67379047216293      0.07942807612413      1.29032405850433
  C   -1.08267640536932      0.41653940952499      4.03711722346801
  N   -2.05422220296988      0.26903967269393      0.43966626918348
  C   -3.60003800600840      2.83783580311291      4.96266043524558
  N   -2.68728797771597      2.16905851367309      4.26184035359364
  C   -2.43346476809494      0.66790445451677      6.12140367989761
  H   -1.94045777210853     -0.19825587214021      6.53898161317895
  C   -2.33303861414818      0.23497028294327      1.75913256639132
  C   -3.99232789491057      2.47426925926693      6.24740071367029
  H   -4.74509751069521      3.05013946494302      6.76869071750713
  C   -3.04930393137710      0.24551743540251     -0.44393849707822
  C   -2.11900777523285      1.10104518068643      4.83654110180602
  C   -3.39533951687613      1.36838457737231      6.83548104266427
  H   -3.67391202535565      1.05411758127207      7.83297866389603
  H   -5.69734808329155     -0.01585880869461      1.62780293253888
  H   -4.03861552901671      3.70387879827756      4.47933093803161
  H   -5.15774381757431      0.14922685485422     -0.81291961451516
  H   -2.76997866379592      0.28219474909004     -1.48873319729170
  C   1.14726203338723     -0.23552868334708      2.64041645356234
  C   4.37993023694410     -0.16392117885614     -0.06248670900963
  C   3.64065734332844     -0.11490011436315      2.21423990315112
  H   3.85216429453484     -0.03667386519537      3.26815546286553
  C   4.67382050824264     -0.07939096682247      1.29034716195052
  C   1.08268763090024     -0.41652620624765      4.03712398883946
  N   2.05425757451579     -0.26902482437649      0.43967801188904
  C   3.59996672695401     -2.83790141753001      4.96268711080785
  N   2.68724518829423     -2.16909414971133      4.26185862496026
  C   2.43345592987881     -0.66793029957337      6.12141848705457
  H   1.94047272703381      0.19824542475253      6.53899240397685
  C   2.33306719621964     -0.23494746741577      1.75914585196196
  C   3.99225916844421     -2.47434574768395      6.24742970754475
  H   4.74500522693756     -3.05024051427891      6.76872662855233
  C   3.04934364594519     -0.24550233689618     -0.44392194043574
  C   2.11899797136518     -1.10105913403149      4.83655219436482
  C   3.39530242417273     -1.36844086083308      6.83550408362220
  H   3.67387616800654     -1.05418322196082      7.83300430409818
  H   5.69737575126183      0.01590665411012      1.62783023104327
  H   4.03851979367702     -3.70395919732682      4.47936184180719
  H   5.15778462421217     -0.14920353217517     -0.81289349754883
  H   2.77002361815983     -0.28218591283383     -1.48871783145697
  N   0.00002092327941     -0.00000555077012     -2.01193093540721
  N   0.00001160185106     -0.00001446696802     -4.68390868004843
  C   0.23561361177657      1.14723200175847     -2.64040668492341
  C   0.16390772788686      4.37991288487174      0.06249245321099
  C   0.11491139626056      3.64063508274521     -2.21423233501203
  H   0.03666503661589      3.85214044176945     -3.26814330179354
  C   0.07937001220309      4.67379820643365     -1.29034120641724
  C   0.41666237264894      1.08262322023958     -4.03710998433063
  N   0.26905555804210      2.05424181942758     -0.43966998860538
  C   2.83864143597538      3.59929474500702     -4.96276114273144
  N   2.16962480389695      2.68674946811993     -4.26190391737387
  C   0.66830593690170      2.43336315791261     -6.12139159456493
  H   -0.19800939828363      1.94059786775661     -6.53893277291620
  C   0.23500835187862      2.33304696047235     -1.75914041172241
  C   2.47512126955254      3.99169702528355     -6.24748023525939
  H   3.05118955099290      4.74429344666034     -6.76880154485880
  C   0.24550585875054      3.04932878258223      0.44392884082580
  C   1.10139725842699      2.11880254752689     -4.83653752729999
  C   1.36903255861704      3.39503239963902     -6.83550468249910
  H   1.05480320748756      3.67368956884183     -7.83299047827733
  H   -0.01595989787399      5.69735006208837     -1.62782553510581
  H   3.70484187582436      4.03761223279186     -4.47947791412139
  H   0.14916112909068      5.15776722135528      0.81289873599903
  H   0.28217409347024      2.77000992336835      1.48872560512671
  C   -0.23557543523437     -1.14724841554379     -2.64039627575814
  C   -0.16384226765110     -4.37990144434784      0.06253955656123
  C   -0.11483607715275     -3.64064819365298     -2.21419275982232
  H   -0.03657355578841     -3.85216478990842     -3.26809929283859
  C   -0.07928782331245     -4.67380044359088     -1.29028989597636
  C   -0.41663622926047     -1.08264785269374     -4.03710007182910
  N   -0.26901213619106     -2.05423709989579     -0.43964991099539
  C   -2.83873830267324     -3.59920756261061     -4.96273651171292
  N   -2.16967782390422     -2.68669061945617     -4.26188463140926
  C   -0.66833405055175     -2.43340223586423     -6.12136513712781
  H   0.19800747369694     -1.94068416881831     -6.53890760783639
  C   -0.23495953707260     -2.33305609073701     -1.75911756392099
  C   -2.47522862256918     -3.99164493486191     -6.24744785189598
  H   -3.05133292215328     -4.74421673193860     -6.76876491236240
  C   -0.24545610134529     -3.04931411914442      0.44396021859104
  C   -1.10141256328863     -2.11881025462302     -4.83651448397812
  C   -1.36910517675600     -3.39504410080619     -6.83547162230748
  H   -1.05488534476628     -3.67372688174734     -7.83295325734389
  H   0.01606070085619     -5.69735462526426     -1.62776193273277
  H   -3.70496575227522     -4.03747324179260     -4.47945464604298
  H   -0.14908948903223     -5.15774712048403      0.81295472658839
  H   -0.28212754030656     -2.76998384317208      1.48875380965948
*

