!STEOM-DLPNO-CCSD DEF2-TZVP DEF2-TZVP/C def2/J RIJCOSX TIGHTSCF CPCM(toluene) RI-SOMF(1X) ESD(FlUOR) NOSOSCF

%maxcore  120000

%mdci
	NRoots 5 #no of roots
	IROOT 1
	DOSOLV  TRUE
end

%ESD 
	GSHESSIAN "Fluor_naphtalene.GS.hess"
	ESHESSIAN "Fluor_naphtalene.ES.hess"
	DOHT TRUE
	LINES VOIGT
	LINEW 75
	INLINEW 200
END

* xyz 0 1
  C   -8.96121784812031      0.24268337776474      0.00033489819780
  C   -7.59059951968750      0.24371545417717      0.00015198745293
  C   -6.86693343298993      1.46030211281662      0.00023475747764
  C   -7.58799559947894      2.69205204792658      0.00050997612007
  C   -9.00310055342497      2.65617792309838      0.00069280404132
  C   -9.67467975506609      1.46137108557408      0.00060814266859
  H   -4.90710891896316      0.55933209328366     -0.00016767341217
  H   -9.50425962457938     -0.69409088109167      0.00026687164944
  H   -7.04027568972576     -0.68980140749936     -0.00005544925225
  C   -5.45183741157070      1.49616229462644      0.00005614405431
  C   -6.86437066397562      3.90865807672096      0.00059715121121
  H   -9.54784882567221      3.59299899012176      0.00091076313657
  H   -10.75737868171900      1.44626581403603      0.00074783188745
  C   -5.49375285629476      3.90967522182525      0.00042517705822
  C   -4.78028626336214      2.69100004727155      0.00015218718405
  H   -7.41470937199301      4.84216327382740      0.00079951152285
  H   -4.95071130646203      4.84645090655905      0.00050815101568
  H   -3.69758703691443      2.70613312896136      0.00001676798628
*
