!UKS B3LYP DEF2-TZVP(-F) RIJCOSX TIGHTSCF CPCM(toluene) TIGHTOPT NUMFREQ

%maxcore  20000
%PAL 
   NPROCS 10
END

%ELPROP
   POLAR 1
END

# Naphtalene
  
* xyz 0 1
 C                 -8.96362052    0.23923842    0.00026300
 C                 -7.59081952    0.23923842    0.00026300
 C                 -6.86888152    1.46435942    0.00026300
 C                 -7.58675152    2.68822542    0.00063300
 C                 -9.00816752    2.65885242    0.00078700
 C                 -9.67967252    1.46087742    0.00049700
 H                 -4.89980852    0.53939442    0.00002000
 H                 -9.52435152   -0.70710758    0.00018300
 H                 -7.02603052   -0.70508358    0.00003500
 C                 -5.44715452    1.49390242    0.00000000
 C                 -6.86400152    3.91295142    0.00074800
 H                 -9.55540852    3.61330842    0.00086900
 H                -10.77930952    1.43451042    0.00059900
 C                 -5.49114052    3.91301942    0.00047500
 C                 -4.77512852    2.69112742    0.00001600
 H                 -7.42845752    4.85749242    0.00100800
 H                 -4.93044852    4.85935042    0.00029700
 H                 -3.67550052    2.71759242   -0.00016600
*


